/*--------------------------------*- C++ -*----------------------------------*\
  =========                 o|
  \\      /  F ield         | OpenFOAM: The Open Source CFD Toolbox
   \\    /   O peration     | Website:  https://openfoam.org
    \\  /    A nd           | Version:  7
     \\/     M anipulation  |
\*---------------------------------------------------------------------------*/
FoamFile
{
    version     2.0;
    format      ascii;
    class       dictionary;
    location    "system";
    object      controlDict;
}
// * * * * * * * * * * * * * * * * * * * * * * * * * * * * * * * * * * * * * //

application     rhoCentralFoam;

startFrom       latestTime;

startTime       0;

stopAt          nextWrite;

endTime         0.002;

deltaT          1e-8;

writeControl    runTime;

writeInterval   1e-5;

purgeWrite      0;

writeFormat     ascii;

writePrecision  6;

writeCompression off;

timeFormat      general;

timePrecision   6;

runTimeModifiable true;

adjustTimeStep  off;

maxCo           0.5;

maxDeltaT       1e-6;


functions
{

    wallShearStress
    {
        type     wallShearStress;
        libs      ("libfieldFunctionObjects.so");
    
        writeControl    runTime;
        writeInterval   1e-5;
    }
}

// ************************************************************************* //
